<?xml version="1.0" encoding="UTF-8"?>

<!-- generated on 2024-09-16 09:26:50 by Eclipse SUMO netedit Version 1.20.0
laneChangeModel="SL2015" lcKeepRight="0" lcCooperative="-1" lcImpatience="1" lcStrategic="3" laneChangeModel="SL2015" lcKeepRight="0"/>

-->

<routes xmlns:xsi="http://www.w3.org/2001/XMLSchema-instance" xsi:noNamespaceSchemaLocation="http://sumo.dlr.de/xsd/routes_file.xsd">
	<vTypeDistribution id="typedist1">
        <vType id="HV1" accel="3" decel="3" sigma="0.5" length="4.7" maxSpeed="27.78" color="1,0,1" carFollowModel="IDM" lcKeepRight="0" minGap="2" tau="1.1"/>
        <vType id="type2" accel="1.8" length="8" maxSpeed="27.78" probability="0.1" vClass="truck" color="0,1,1"/>
    </vTypeDistribution>

	<vType id="HV" accel="3" decel="3" sigma="0.5" length="4.7" maxSpeed="33.33" color="1,0,1" carFollowModel="IDM" lcKeepRight="0" minGap="2" tau="1.1"></vType> <!-- 0.3 0.5 1 -->
	<flow id="f1" type="typedist1" begin="0" end="150" from="E0" to="E1" probability="0.7" departLane ="random" departSpeed="avg"/>

	<vType id="AV" accel="3" decel="3" sigma="0.5" length="4.7" maxSpeed="33.33" color="1,0,1"  />

	<trip id="DRL_AV" type="AV" from="E0" to="E1" depart="20" color="1,1,0" departLane ="random" departSpeed="30"/>
</routes>